          20
   -67.027635   1.0000
Au   -0.08355938   2.01539936   3.11892256
Au   -1.59659429  -0.15357948   3.08038357
Au   -0.55187290  -2.44051874   2.26461342
Au    2.34228103   1.95225927   2.10245548
Pd    0.63399767  -0.10665732   1.53790428
Au    1.87282886  -2.49912041   1.25027640
Pd    3.23258583  -0.26844474   1.02546129
Pd   -1.54063205   1.47165509   0.92965854
Au    0.41361957   3.24344748   0.79602300
Pd   -2.22898115  -1.12197029   0.68074760
Pd   -0.22782579  -2.68417950  -0.37828707
Pd    1.81022292   1.38681161  -0.46224584
Pd   -0.36926212  -0.13536104  -0.89896395
Pd    2.01183309  -1.23655626  -1.07649518
Pd   -2.84917540   0.73500195  -1.20748145
Au   -0.60695443   2.37085389  -1.58368177
Pd   -2.24582646  -1.73368764  -1.89145389
Au    1.20658089   0.66574838  -2.95397503
Au   -1.39894797   0.36400244  -3.37485996
Au    0.17568206  -1.82510405  -2.95900202
