          20
   -67.045571   1.0000
Pd   -0.06556685   0.73958317   3.08320793
Pd    2.33160697  -0.14610281   2.72178335
Pd    0.27414264  -1.80988109   2.13513495
Au    1.71889083   2.35413233   1.92260032
Pd   -1.82342303  -0.19357037   1.40598310
Pd   -0.81596551   2.28554535   0.99098595
Au   -1.85631187  -2.73836099   0.72342553
Pd    2.59189777  -1.69786140   0.67585943
Pd    0.72701139   0.19684315   0.60324187
Au    3.35831578   0.85044020   0.43747518
Au   -3.09214949   1.54662798  -0.19856836
Au   -3.54662609  -1.05363015  -0.46624576
Pd    0.37015489  -2.20553763  -0.58113628
Au    1.39561772   2.33696297  -0.82556350
Pd   -1.14799971  -0.01735888  -1.24969898
Pd    2.04666053  -0.34007634  -1.60221610
Au   -1.16263240   2.67953619  -1.61261789
Au    0.16181405  -1.43793461  -3.14627249
Au    0.45988407   1.19134987  -3.08242866
Au   -1.92532167  -2.54070694  -1.93494960
