          20
   -67.024732   1.0000
Pd    0.82147827  -1.29421805   2.91441535
Au   -1.75889912  -0.82690878   2.92720189
Pd   -0.02677548   1.10864082   2.36794237
Pd    2.31648661   0.13734953   1.30490714
Pd    1.64917739   2.74305118   1.14455535
Au    1.99958946  -2.47767564   0.90225000
Au   -3.21250668  -1.74010981   0.92582166
Pd   -2.16089144   0.72642689   0.77096024
Pd   -0.50180008  -1.47144711   0.61849992
Pd   -0.92272226   3.02299981   0.66002677
Pd    0.34638109   0.87554718  -0.22597928
Au    2.85906305   1.63860546  -0.93433921
Pd    2.01057774  -0.90169618  -1.22921990
Au    0.58342975  -3.15514881  -1.21254725
Au   -2.04713274  -2.89554491  -1.14073365
Au    0.75845850   3.32988068  -1.34303599
Pd   -0.55518607  -0.86583781  -2.07489183
Au    1.01210721   1.15020342  -2.83885810
Au   -1.54325336   1.78498882  -1.77691365
Au   -3.07722911  -0.44605399  -1.41000078
