          20
   -67.025413   1.0000
Au    0.84689578   1.58339076   2.96756047
Pd   -1.23273273   0.06423528   2.27974338
Pd   -0.63993741  -2.54888238   1.78165379
Pd    1.28006161  -0.78624582   1.75821614
Au    3.11441214   1.17106783   1.66488593
Au   -1.20238773   2.65405717   1.68516459
Au   -2.97539789  -1.52302703   0.97106130
Pd    0.77729690   1.45989368   0.26109960
Pd   -2.53590247   1.02771681   0.03519945
Au   -0.44389806  -1.93556242  -2.57302436
Pd   -1.01662174   0.76976961  -2.26514572
Pd    1.08075769   2.33172863  -2.22421402
Pd    1.44891437  -0.24815861  -1.78712141
Au   -2.85396784  -1.11812073  -1.66792004
Au   -1.07656246   3.04631355  -0.91232676
Au    3.23393935   1.55934941  -0.93540021
Au   -1.55626220  -3.26946740  -0.57579651
Pd    1.13136399  -2.57986264  -0.32941934
Pd   -0.63198491  -0.73468725  -0.14911655
Au    3.25201364  -0.92350845   0.01490027
